test/test1/2.pdb
 OpenBabel04052219043D

  9  8  0  0  0  0  0  0  0  0999 V2000
    9.8500   10.4058    9.0221 C   0  0  0  0  0  0  0  0  0  0  0  0
    9.9789    9.4760   10.2977 C   0  0  0  0  0  0  0  0  0  0  0  0
   10.6290   10.0655   11.3970 O   0  0  0  0  0  0  0  0  0  0  0  0
   10.1220    9.8101    8.1808 H   0  0  0  0  0  0  0  0  0  0  0  0
    8.9491   11.0896    8.7817 H   0  0  0  0  0  0  0  0  0  0  0  0
   10.9590   10.8931    8.8055 H   0  0  0  0  0  0  0  0  0  0  0  0
   10.5110    8.5367   10.0095 H   0  0  0  0  0  0  0  0  0  0  0  0
    9.0361    9.3393   10.5485 H   0  0  0  0  0  0  0  0  0  0  0  0
   10.0090   10.4841   12.0905 H   0  0  0  0  0  0  0  0  0  0  0  0
  1  2  1  0  0  0  0
  2  8  1  0  0  0  0
  2  3  1  0  0  0  0
  3  9  1  0  0  0  0
  4  1  1  0  0  0  0
  5  1  1  0  0  0  0
  6  1  1  0  0  0  0
  7  2  1  0  0  0  0
M  END
$$$$
